! dlpno-ccsd(t) cc-pvdz cc-pvdz/c cc-pvtz/jk rijk verytightscf TightPNO
*xyz 0 1
  C      0.158328    0.108721    0.233327
  H      1.032407   -0.083436   -0.419629
  H     -0.105718    1.160959    0.009695
  O     -1.505910   -1.337873    2.272245
  H     -0.929295   -0.931121    1.599741
  H     -1.123517   -2.199945    2.444084
*